52
Generated by 
C -5.503702 1.442584 2.464253
C -4.364498 1.065994 1.557845
C -3.891358 -0.251788 1.560536
C -2.836733 -0.655554 0.733313
C -2.214431 0.271908 -0.134589
C -2.704145 1.590240 -0.135501
C -3.765838 1.998121 0.696043
C -4.238576 3.426632 0.640573
N -1.149919 -0.165887 -0.954657
C -0.714419 -1.484090 -0.847966
N 0.308533 -1.955365 -1.498157
C 0.777985 -3.210008 -1.243228
O 1.971827 -3.483486 -1.351189
N -0.093768 -4.164333 -0.815413
C -1.006300 -3.845224 0.144287
O -1.379259 -4.623638 1.006132
C -1.452250 -2.406877 0.091886
N -2.444584 -2.003946 0.825026
C -0.338481 0.806890 -1.698554
C 0.702247 1.564348 -0.832814
C 1.795158 0.621445 -0.247710
C 3.042756 1.335343 0.324123
C 4.144293 0.329721 0.695693
O 4.606075 -0.284881 -0.503861
P 5.167272 -1.782302 -0.429472
O 5.763796 -2.324220 -1.680487
O 3.971001 -2.657018 0.152042
O 6.199367 -1.766771 0.789547
O 3.571752 2.269552 -0.627098
O 1.245554 -0.203391 0.793460
O 1.238908 2.596239 -1.672034
H -5.204091 2.252138 3.137258
H -5.818217 0.598556 3.087361
H -6.369498 1.758955 1.874103
H -4.344376 -0.994065 2.215864
H -2.273162 2.340275 -0.793026
H -3.674700 4.010403 -0.094690
H -5.293728 3.467033 0.352282
H -4.106346 3.908104 1.614629
H 0.347960 -5.056067 -0.642395
H -0.979375 1.522706 -2.228827
H 0.189617 0.311707 -2.525329
H 0.190779 2.065778 -0.003770
H 2.130697 -0.033926 -1.059500
H 2.761183 1.896963 1.221990
H 4.996248 0.857353 1.136712
H 3.780854 -0.412531 1.412825
H 3.362415 -2.963659 -0.562287
H 6.763511 -2.560295 0.755954
H 4.188887 1.754590 -1.190746
H 0.822370 0.376588 1.453084
H 2.120709 2.849160 -1.320285
